27
cdc209c511c0bc5b02ac2f01d5ae0261__zhai_et_al_2023_HC_df2-svp__Energy = -4717.139080700 H
C    -1.065461  -1.616594  -3.693890
H    -1.438362  -0.568977  -3.674136
H    -1.780713  -2.244320  -3.112139
H    -1.077389  -1.992432  -4.749408
S     0.624382  -1.653742  -2.960255
C     0.415658   1.787614  -4.055678
H     1.348899   2.383536  -3.921807
H    -0.133019   2.225164  -4.929344
H     0.713596   0.742240  -4.291913
S    -0.607046   1.789619  -2.522292
C    -0.823252   2.857372   1.468123
H    -0.087716   2.806613   0.640770
H    -0.943983   3.924622   1.789794
H    -1.797567   2.522646   1.049856
S    -0.273563   1.780787   2.857906
C    -1.064324  -1.524232   4.033738
H    -1.030462  -1.836854   5.110312
H    -1.873425  -2.123197   3.549451
H    -1.354175  -0.452690   3.978106
S     0.558885  -1.753868   3.186483
Fe    0.494384   0.046472  -1.205244
Fe    0.581000  -0.047520   1.468493
S     2.270202   0.598759   0.081869
C    -0.980481  -0.850435   0.159589
H    -0.927875  -1.960374   0.210692
H    -1.530164  -0.567765  -0.779679
H    -1.633030  -0.491431   0.994599
