27
HC , Energy = -5076.012745 H
C -1.89342031 -2.94949331 -7.12177899
H -2.54339731 -0.97906391 -7.09286332
H -3.30953872 -4.10746983 -6.13271285
H -1.78233191 -3.61259806 -9.09765127
S 1.20164028 -3.14391237 -5.53655396
C 0.70175561 3.31623544 -7.75340011
H 2.42278875 4.48645307 -7.75437981
H -0.55001429 4.01726270 -9.26916545
H 1.25567282 1.35936496 -8.16726945
S -0.88385618 3.42838856 -4.65419662
C -1.59341328 5.38738577 2.69823716
H -0.16329228 5.34717827 1.20448660
H -1.86184135 7.35300309 3.34781319
H -3.37275285 4.72943706 1.86139269
S -0.60598410 3.33049089 5.32345806
C -1.97412845 -2.92554715 7.85809788
H -1.77207663 -3.52650830 9.84758262
H -3.52264699 -4.03137012 7.01379265
H -2.50137471 -0.92207831 7.79977086
S 0.99725315 -3.37479862 6.08671301
Fe 1.00043688 0.01396551 -2.23952733
Fe 1.02807517 -0.20085270 2.85930267
S 4.26540766 0.81314534 0.32021427
C -1.93759727 -1.49377793 0.28393699
H -1.95616552 -3.56679309 0.32360730
H -2.89342485 -0.84128190 -1.46884922
H -3.10644747 -0.76171110 1.85525513