27
HFe , Energy = -5076.012745 H
C -3.75913157 -2.73243516 -5.62379855
H -3.29406598 -0.86937361 -6.40698422
H -5.34465440 -2.50613889 -4.30508511
H -4.33389115 -4.02169448 -7.16164635
S -0.94169345 -3.95902372 -4.00566722
C 3.36704638 0.78931871 -6.64033009
H 5.16356944 0.74240615 -5.59643989
H 3.70490535 1.68962586 -8.49608837
H 2.74508794 -1.16929167 -6.92812697
S 0.93491439 2.49051761 -4.84940786
C -1.68456058 7.18270902 2.40049702
H 0.19224944 6.49260250 1.86699529
H -1.50677428 9.06394023 3.29003486
H -2.79670363 7.39397233 0.65959374
S -3.19217575 4.89925564 4.56992044
C -2.19692263 -4.80564329 4.43881601
H -2.57539687 -4.92192958 2.40602069
H -3.03292045 -6.46935583 5.38725653
H -0.13958047 -4.84884165 4.68075772
S -3.48483113 -1.83709967 5.73824166
Fe 0.38826032 -0.59158352 -1.35560261
Fe -1.70350676 1.07471666 2.92488570
S 2.41535463 0.66757931 2.06352051
C -3.11193692 0.30561124 -0.38195714
H 2.67456217 -2.54093001 -1.48834688
H -3.80956887 2.12943289 -1.11041352
H -4.60333594 -1.13690125 -0.42009557