27
HFe2 , Energy = -5076.012745 H
C -1.10308696 -3.43573011 -8.31015755
H -1.97612529 -1.55868177 -8.47300817
H -2.14811060 -4.78815975 -9.50868326
H 0.84450816 -3.32220378 -9.04341854
S -1.16558991 -4.42709801 -4.97779147
C 1.01349275 2.98702318 -6.87382013
H 2.38288989 3.07635358 -5.32040867
H 1.08693632 4.76165870 -7.96939213
H 1.55847962 1.42276663 -8.12966587
S -2.15634240 2.50020374 -5.54907517
C -1.11945035 5.29777671 3.59413326
H 0.39205944 5.04544188 2.19778930
H -0.71668237 6.96183152 4.78580215
H -2.88709716 5.63793316 2.56070368
S -1.34233521 2.43107787 5.53953962
C -0.81834672 -3.19565308 8.30207207
H -2.35902855 -1.86830822 8.70843936
H 0.96112552 -2.20397624 8.69784276
H -0.97571351 -4.81794673 9.60760604
S -0.94162510 -4.27161064 4.99428938
Fe -1.11154921 -0.67337271 -2.32791573
Fe -0.91042029 -0.60040006 2.27934685
S 2.47213018 0.49721313 -0.26094746
C -3.82542178 0.21332099 0.05633629
H -1.08992756 -2.97599580 -0.02897393
H -4.34227128 2.22216152 0.00023204
H -5.46245532 -1.03979771 0.28218450